/*--------------------------------*- C++ -*----------------------------------*\
| =========                 |                                                 |
| \\      /  F ield         | OpenFOAM: The Open Source CFD Toolbox           |
|  \\    /   O peration     | Version:  5                                     |
|   \\  /    A nd           | Web:      www.OpenFOAM.org                      |
|    \\/     M anipulation  |                                                 |
\*---------------------------------------------------------------------------*/
FoamFile
{
    version     2.0;
    format      ascii;
    class       dictionary;
    object      motionProperties;
}
// * * * * * * * * * * * * * * * * * * * * * * * * * * * * * * * * * * * * * //

dynamicFvMesh       dynamicMotionSolverFvMesh;

motionSolverLibs   ("librigidBodyMeshMotion.so");

motionSolver       rigidBodyMotion;

rigidBodyMotionCoeffs
{
    report          on;

    solver
    {
        type Newmark;
    }

    accelerationRelaxation 0.7;

    bodies
    {
        floatingObject
        {
            type            cuboid;
            parent          root;

            // Cuboid dimensions
            Lx              1.4;
            Ly              0.1;
            Lz              0.8;

            // Density of the cuboid
            rho             500;

            // Cuboid mass
            mass            #calc "$rho*$Lx*$Ly*$Lz";
            L               ($Lx $Ly $Lz);
            centreOfMass    (0 0 0.4);
            transform       (1 0 0 0 1 0 0 0 1) (10 0.05 4.6);

            joint
            {
                type            composite;
                joints
                (
                    {
                        type Pz;
                    }
                    {
                        type Ry;
                    }
                );
            }

            patches         (floatingObject);
            innerDistance   0.01;
            outerDistance   5;
        }
    }
}


// ************************************************************************* //
