/*--------------------------------*- C++ -*----------------------------------*\
| =========                 |                                                 |
| \\      /  F ield         | OpenFOAM: The Open Source CFD Toolbox           |
|  \\    /   O peration     | Version:  plus                                  |
|   \\  /    A nd           | Web:      www.OpenFOAM.com                      |
|    \\/     M anipulation  |                                                 |
\*---------------------------------------------------------------------------*/
FoamFile
{
    version     2.0;
    format      ascii;
    class       dictionary;
    object      blockMeshDict;
}
// * * * * * * * * * * * * * * * * * * * * * * * * * * * * * * * * * * * * * //

scale   1;

vertices
(
    (8.3 0 3.6) 		//0 
    (11.7 0 3.6) 		//1
    (11.7 0.1 3.6) 		//2
    (8.3 0.1 3.6) 		//3
    (8.3 0 6.4)			//4
    (11.7 0 6.4)		//5
    (11.7 0.1 6.4) 		//6
    (8.3 0.1 6.4)		//7
);

blocks
(
    hex (0 1 2 3 4 5 6 7) (34 1 28) simpleGrading (1 1 1)
);

edges
(
);

boundary
(
    sides
    {
        type overset;
        faces
        (
            (0 1 2 3)
            (4 5 6 7)
            (0 3 7 4)
            (1 2 6 5)
        );
    }
    floatingObject
    {
        type wall;
        faces ();
    }
);

// ************************************************************************* //
