/*--------------------------------*- C++ -*----------------------------------*\
| =========                 |                                                 |
| \\      /  F ield         | OpenFOAM: The Open Source CFD Toolbox           |
|  \\    /   O peration     | Version:  5                                     |
|   \\  /    A nd           | Web:      www.OpenFOAM.org                      |
|    \\/     M anipulation  |                                                 |
\*---------------------------------------------------------------------------*/
FoamFile
{
    version     2.0;
    format      ascii;
    class       dictionary;
    object      motionProperties;
}
// * * * * * * * * * * * * * * * * * * * * * * * * * * * * * * * * * * * * * //

dynamicFvMesh       dynamicMotionSolverFvMesh;

motionSolverLibs    ("libsixDoFRigidBodyMotion.so");

motionSolver        sixDoFRigidBodyMotion;

sixDoFRigidBodyMotionCoeffs
{
    patches         (floatingObject);
    innerDistance   0.01;
    outerDistance   2.5;
    
    report		on;
    reportToFile	on;

    velocity (0 0 0);

    // Cuboid dimensions
    Lx              1.4;
    Ly              0.1;
    Lz              0.8;
    centreOfMass    (10 0.05 5);

    // Density of the solid
    rhoSolid        500;

    // Cuboid mass
    mass            #calc "$rhoSolid*$Lx*$Ly*$Lz";

    // Cuboid moment of inertia about the centre of mass
    momentOfInertia #codeStream
    {
        codeInclude
        #{
            #include "diagTensor.H"
        #};

        code
        #{
            scalar sqrLx = sqr($Lx);
            scalar sqrLy = sqr($Ly);
            scalar sqrLz = sqr($Lz);
            os  <<
                $mass
               *diagTensor(sqrLy + sqrLz, sqrLx + sqrLz, sqrLx + sqrLy)/12.0;
        #};
    };

    accelerationRelaxation 1.0;
    solver
    {
        type Newmark;
    }

    constraints
    {


        yAxis
        {
            sixDoFRigidBodyMotionConstraint axis;
            axis (0 1 0);
        }
    }
}


// ************************************************************************* //
